5 

Sr    0.00000   0.00000   0.00000   0.000006125333678   0.000006125715636   0.000006165674618
Mn    1.90222   1.90222   1.90222   0.011194552865759   0.011194562322878   0.011203911569280
O    0.00000   1.90222   1.90222   0.000315026978032   0.000641325737255   0.000640894934330
O    1.90222   0.00000   1.90222   0.000641329077133   0.000315030093204   0.000640893558106
O    1.90222   1.90222   0.00000   0.000651598722789   0.000651602398791   0.000315493892380
